* NGSPICE file created from pll_3bitDiv.ext - technology: ihp-sg13g2

.subckt pll_3bitDiv CLK_IN CLK_OUT Y0 Y2 Y1 VDD VSS nEN X1 X2 X0
X0 VDD a_53968_20434# a_53899_20488# VDD sg13_lv_pmos ad=0.34p pd=2.68u as=0.19p ps=1.38u w=1u l=0.13u
X1 VSS 3bit_freq_divider_1.dff_nclk_0.nCLK a_61488_20220# VSS sg13_lv_nmos ad=0.1428p pd=1.52u as=50.4f ps=0.66u w=0.42u l=0.13u
X2 a_62119_20605# a_61691_20534# a_61394_20220# VSS sg13_lv_nmos ad=79.8f pd=0.8u as=0.1428p ps=1.52u w=0.42u l=0.13u
X3 a_52924_22885# 3bit_freq_divider_0.freq_div_cell_0.dff_nclk_0.Q VDD VDD sg13_lv_pmos ad=0.3808p pd=2.92u as=0.2128p ps=1.5u w=1.12u l=0.13u
X4 a_53065_20179# a_53738_20514# a_53702_20612# VDD sg13_lv_pmos ad=0.17695p pd=1.56u as=43.05f ps=0.625u w=0.42u l=0.13u
X5 a_62119_22361# 3bit_freq_divider_1.dff_nclk_0.nCLK VDD VDD sg13_lv_pmos ad=0.1533p pd=1.57u as=0.11785p ps=1.025u w=0.42u l=0.13u
X6 a_53152_43159# VSS cap_cmim l=6.99u w=6.99u
X7 VDD a_52950_22157# 3bit_freq_divider_0.freq_div_cell_0.dff_nclk_0.Q VDD sg13_lv_pmos ad=0.2016p pd=1.5u as=0.3808p ps=2.92u w=1.12u l=0.13u
X8 3bit_freq_divider_1.freq_div_cell_2.dff_nclk_0.sg13g2_dfrbp_1_0.CLK 3bit_freq_divider_1.sg13g2_nand2_1_0.Y VSS VSS sg13_lv_nmos ad=0.259p pd=2.18u as=0.259p ps=2.18u w=0.74u l=0.13u
X9 VSS 3bit_freq_divider_1.freq_div_cell_0.dff_nclk_0.Q a_61061_23234# VSS sg13_lv_nmos ad=0.1331p pd=1.12u as=0.1216p ps=1.02u w=0.64u l=0.13u
X10 a_62879_24125# a_61887_24046# a_62654_23727# VDD sg13_lv_pmos ad=43.05f pd=0.625u as=0.17695p ps=1.56u w=0.42u l=0.13u
X11 a_53022_43738# a_53022_43738# VDD VDD sg13_lv_pmos ad=59f pd=0.74u as=0.104p ps=1.34u w=0.2u l=0.13u
X12 VSS a_55345_24897# 3bit_freq_divider_0.freq_div_cell_0.Cin VSS sg13_lv_nmos ad=0.1331p pd=1.12u as=0.2516p ps=2.16u w=0.74u l=0.13u
X13 a_64383_23434# a_64383_23628# VSS VSS sg13_lv_nmos ad=0.2516p pd=2.16u as=0.1544p ps=1.235u w=0.74u l=0.13u
X14 VDD a_53774_21934# a_53738_22270# VDD sg13_lv_pmos ad=0.19p pd=1.38u as=0.34p ps=2.68u w=1u l=0.13u
X15 a_55485_23233# 3bit_freq_divider_0.freq_div_cell_0.dff_nclk_0.Q VSS VSS sg13_lv_nmos ad=0.1216p pd=1.02u as=0.1331p ps=1.12u w=0.64u l=0.13u
X16 a_64383_23300# a_64383_23628# a_64424_22200# VSS sg13_lv_nmos ad=79.8f pd=0.8u as=0.1428p ps=1.52u w=0.42u l=0.13u
X17 VSS charge_pump_0.vout VSS VSS sg13_lv_nmos ad=0.285p pd=1.88u as=0.53383n ps=1.58949m w=1.5u l=0.65u
X18 VDD a_53022_43738# a_57084_43159# VDD sg13_lv_pmos ad=0.104p pd=1.34u as=59f ps=0.74u w=0.2u l=0.13u
X19 VDD a_51648_21103# 3bit_freq_divider_0.dff_nclk_0.nCLK VDD sg13_lv_pmos ad=0.3822p pd=1.84u as=0.3808p ps=2.92u w=1.12u l=0.13u
X20 a_64383_23434# a_64383_23628# VDD VDD sg13_lv_pmos ad=0.34p pd=2.68u as=0.19p ps=1.38u w=1u l=0.13u
X21 a_54627_42591# vco_wob_0.vctl VSS VSS sg13_lv_nmos ad=65.99999f pd=0.74u as=0.102p ps=1.28u w=0.3u l=0.13u
X22 a_59799_40285# 3bit_freq_divider_0.CLK_IN a_58515_40413# VDD sg13_lv_pmos ad=0.17p pd=1.68u as=0.1106p ps=0.945u w=0.5u l=0.13u
X23 a_61972_23244# 3bit_freq_divider_1.freq_div_cell_0.Cin VSS VSS sg13_lv_nmos ad=88.8f pd=0.98u as=0.15245p ps=1.17u w=0.74u l=0.13u
X24 a_54494_43159# a_53152_43159# a_54627_42591# VSS sg13_lv_nmos ad=0.11p pd=0.94u as=0.17p ps=1.68u w=0.5u l=0.13u
X25 a_54427_40283# a_54489_40413# a_53147_40413# VDD sg13_lv_pmos ad=0.11p pd=0.94u as=0.11p ps=0.94u w=0.5u l=0.13u
X26 VDD 3bit_freq_divider_0.freq_div_cell_2.dff_nclk_0.D a_54504_23771# VDD sg13_lv_pmos ad=0.1428p pd=1.52u as=79.8f ps=0.8u w=0.42u l=0.13u
X27 a_53774_20178# 3bit_freq_divider_0.freq_div_cell_1.dff_nclk_0.sg13g2_dfrbp_1_0.CLK VSS VSS sg13_lv_nmos ad=0.2516p pd=2.16u as=0.1544p ps=1.235u w=0.74u l=0.13u
X28 a_54504_20259# 3bit_freq_divider_0.freq_div_cell_1.dff_nclk_0.D a_55086_20219# VSS sg13_lv_nmos ad=0.1428p pd=1.52u as=50.4f ps=0.66u w=0.42u l=0.13u
X29 charge_pump_0.bias_n charge_pump_0.bias_n VSS VSS sg13_lv_nmos ad=0.34p pd=2.68u as=0.34p ps=2.68u w=1u l=1u
X30 VSS 3bit_freq_divider_0.freq_div_cell_0.Cout a_54434_21392# VSS sg13_lv_nmos ad=0.374p pd=2.46u as=0.17462p ps=1.185u w=0.55u l=0.13u
X31 3bit_freq_divider_1.freq_div_cell_2.dff_nclk_0.Q a_63463_23728# VSS VSS sg13_lv_nmos ad=0.2516p pd=2.16u as=0.14505p ps=1.15u w=0.74u l=0.13u
X32 a_47954_28913# PFD_0.VCO_CLK a_48909_28913# VSS sg13_lv_nmos ad=68.39999f pd=0.74u as=68.39999f ps=0.74u w=0.36u l=0.15u
X33 a_54898_21129# 3bit_freq_divider_0.freq_div_cell_1.dff_nclk_0.Q a_54434_21392# VDD sg13_lv_pmos ad=0.1225p pd=1.245u as=0.34p ps=2.68u w=1u l=0.13u
X34 VSS charge_pump_0.vout VSS VSS sg13_lv_nmos ad=0.285p pd=1.88u as=0 ps=0 w=1.5u l=0.65u
X35 a_51693_23426# 3bit_freq_divider_0.dff_nclk_0.nRST VDD VDD sg13_lv_pmos ad=0.1533p pd=1.57u as=0.11785p ps=1.025u w=0.42u l=0.13u
X36 3bit_freq_divider_1.dff_nclk_0.sg13g2_dfrbp_1_0.CLK 3bit_freq_divider_1.dff_nclk_0.nCLK VSS VSS sg13_lv_nmos ad=0.259p pd=2.18u as=0.259p ps=2.18u w=0.74u l=0.13u
X37 PFD_0.UP a_47777_29803# VSS VSS sg13_lv_nmos ad=0.1632p pd=1.64u as=0.1632p ps=1.64u w=0.48u l=0.15u
X38 VDD a_62654_23727# a_62900_23691# VDD sg13_lv_pmos ad=0.2163p pd=1.55u as=79.8f ps=0.8u w=0.42u l=0.13u
X39 a_54504_23771# 3bit_freq_divider_0.freq_div_cell_2.dff_nclk_0.D a_55086_23731# VSS sg13_lv_nmos ad=0.1428p pd=1.52u as=50.4f ps=0.66u w=0.42u l=0.13u
X40 a_60967_23234# 3bit_freq_divider_1.freq_div_cell_0.Cin VDD VDD sg13_lv_pmos ad=0.1596p pd=1.22u as=0.2856p ps=2.36u w=0.84u l=0.13u
X41 a_54602_23243# 3bit_freq_divider_0.freq_div_cell_0.dff_nclk_0.Q 3bit_freq_divider_0.freq_div_cell_0.dff_nclk_0.D VSS sg13_lv_nmos ad=88.8f pd=0.98u as=0.1628p ps=1.18u w=0.74u l=0.13u
X42 a_54898_24641# 3bit_freq_divider_0.freq_div_cell_2.dff_nclk_0.Q a_54434_24904# VDD sg13_lv_pmos ad=0.1225p pd=1.245u as=0.34p ps=2.68u w=1u l=0.13u
X43 VDD 3bit_freq_divider_1.freq_div_cell_1.dff_nclk_0.Q a_60967_21478# VDD sg13_lv_pmos ad=0.1918p pd=1.5u as=0.1596p ps=1.22u w=0.84u l=0.13u
X44 a_62221_24117# a_61691_24046# a_62119_24117# VDD sg13_lv_pmos ad=51.45f pd=0.665u as=79.8f ps=0.8u w=0.42u l=0.13u
X45 a_58426_43159# a_57178_43159# 3bit_freq_divider_0.CLK_IN VDD sg13_lv_pmos ad=0.11p pd=0.94u as=0.1106p ps=0.945u w=0.5u l=0.13u
X46 a_62246_20260# a_61887_20534# a_62119_20605# VSS sg13_lv_nmos ad=54.6f pd=0.68u as=79.8f ps=0.8u w=0.42u l=0.13u
X47 a_52074_23051# a_51684_22692# a_51693_23426# VSS sg13_lv_nmos ad=54.6f pd=0.68u as=79.8f ps=0.8u w=0.42u l=0.13u
X48 a_54504_22015# 3bit_freq_divider_0.dff_nclk_0.nCLK VDD VDD sg13_lv_pmos ad=79.8f pd=0.8u as=0.1428p ps=1.52u w=0.42u l=0.13u
X49 VDD a_55345_23141# 3bit_freq_divider_0.freq_div_cell_0.Cout VDD sg13_lv_pmos ad=0.1918p pd=1.5u as=0.3808p ps=2.92u w=1.12u l=0.13u
X50 a_64464_23130# a_64419_23326# a_64464_23052# VSS sg13_lv_nmos ad=48.3f pd=0.65u as=54.6f ps=0.68u w=0.42u l=0.13u
X51 VSS a_63255_21488# 3bit_freq_divider_1.sg13g2_or3_1_0.A VSS sg13_lv_nmos ad=0.3108p pd=2.32u as=0.1628p ps=1.18u w=0.74u l=0.13u
X52 a_61675_22886# 3bit_freq_divider_1.freq_div_cell_0.Cin VDD VDD sg13_lv_pmos ad=0.1225p pd=1.245u as=0.36p ps=2.72u w=1u l=0.13u
X53 VDD a_53022_43738# a_53085_40283# VDD sg13_lv_pmos ad=0.104p pd=1.34u as=59.75f ps=0.745u w=0.2u l=0.13u
X54 a_53968_20434# a_53738_20514# a_54324_20259# VSS sg13_lv_nmos ad=79.8f pd=0.8u as=54.6f ps=0.68u w=0.42u l=0.13u
X55 VSS 3bit_freq_divider_0.sg13g2_or3_1_0.B a_51648_21103# VSS sg13_lv_nmos ad=0.1045p pd=0.93u as=0.198p ps=1.27u w=0.55u l=0.13u
X56 VDD 3bit_freq_divider_0.EN charge_pump_0.bias_p VDD sg13_lv_pmos ad=0.17p pd=1.68u as=0.17p ps=1.68u w=0.5u l=0.15u
X57 a_55345_23141# 3bit_freq_divider_0.freq_div_cell_0.Cin a_55485_23233# VSS sg13_lv_nmos ad=0.2176p pd=1.96u as=0.1216p ps=1.02u w=0.64u l=0.13u
X58 charge_pump_0.bias_n charge_pump_0.bias_p a_55862_56737# VDD sg13_lv_pmos ad=0.68p pd=4.68u as=0.38p ps=2.38u w=2u l=1u
X59 a_53152_43159# a_52944_43077# a_53058_43159# VDD sg13_lv_pmos ad=0.1106p pd=0.945u as=0.17p ps=1.68u w=0.5u l=0.13u
X60 VDD a_53022_43738# a_55769_40283# VDD sg13_lv_pmos ad=59f pd=0.74u as=59f ps=0.74u w=0.2u l=0.13u
X61 3bit_freq_divider_1.sg13g2_tiehi_1.L_HI a_60584_24580# a_60385_24558# VDD sg13_lv_pmos ad=0.3927p pd=2.99u as=0.4657p ps=2.54u w=1.155u l=0.13u
X62 a_54324_20259# a_53899_20488# a_54252_20259# VSS sg13_lv_nmos ad=54.6f pd=0.68u as=48.3f ps=0.65u w=0.42u l=0.13u
X63 a_62270_24055# a_62119_24117# VDD VDD sg13_lv_pmos ad=0.19p pd=1.38u as=0.34p ps=2.68u w=1u l=0.13u
X64 a_62324_22016# a_62270_22299# a_62246_22016# VSS sg13_lv_nmos ad=48.3f pd=0.65u as=54.6f ps=0.68u w=0.42u l=0.13u
X65 VDD X2 a_52924_21129# VDD sg13_lv_pmos ad=0.2128p pd=1.5u as=0.2128p ps=1.5u w=1.12u l=0.13u
X66 a_52944_43077# a_53147_40413# a_53085_40283# VDD sg13_lv_pmos ad=0.11p pd=0.94u as=0.17p ps=1.68u w=0.5u l=0.13u
X67 VSS a_53774_21934# a_53738_22270# VSS sg13_lv_nmos ad=0.1544p pd=1.235u as=0.2516p ps=2.16u w=0.74u l=0.13u
X68 a_46749_30782# CLK_IN a_45579_29803# VSS sg13_lv_nmos ad=0.1428p pd=1.52u as=79.8f ps=0.8u w=0.42u l=0.15u
X69 a_54400_43159# a_53152_43159# a_54494_43159# VDD sg13_lv_pmos ad=0.11p pd=0.94u as=0.1106p ps=0.945u w=0.5u l=0.13u
X70 3bit_freq_divider_1.freq_div_cell_0.Cin a_60967_24990# VDD VDD sg13_lv_pmos ad=0.3808p pd=2.92u as=0.1918p ps=1.5u w=1.12u l=0.13u
X71 a_55742_43159# a_53022_43738# VDD VDD sg13_lv_pmos ad=59.75f pd=0.745u as=0.104p ps=1.34u w=0.2u l=0.13u
X72 a_53968_23946# a_53738_24026# a_54324_23771# VSS sg13_lv_nmos ad=79.8f pd=0.8u as=54.6f ps=0.68u w=0.42u l=0.13u
X73 a_63038_20215# 3bit_freq_divider_1.dff_nclk_0.nCLK VSS VSS sg13_lv_nmos ad=47.25f pd=0.645u as=90.3f ps=0.85u w=0.42u l=0.13u
X74 a_62900_20179# a_62654_20215# a_63038_20215# VSS sg13_lv_nmos ad=0.1428p pd=1.52u as=47.25f ps=0.645u w=0.42u l=0.13u
X75 3bit_freq_divider_0.sg13g2_or3_1_0.C a_52886_24904# VSS VSS sg13_lv_nmos ad=0.1628p pd=1.18u as=0.3108p ps=2.32u w=0.74u l=0.13u
X76 VDD a_53022_43738# a_57111_40283# VDD sg13_lv_pmos ad=59f pd=0.74u as=59f ps=0.74u w=0.2u l=0.13u
X77 a_48909_28913# PFD_0.VCO_CLK a_47954_28913# VSS sg13_lv_nmos ad=0.1224p pd=1.4u as=68.39999f ps=0.74u w=0.36u l=0.15u
X78 a_54324_23771# a_53899_24000# a_54252_23771# VSS sg13_lv_nmos ad=54.6f pd=0.68u as=48.3f ps=0.65u w=0.42u l=0.13u
X79 VSS vco_wob_0.vctl a_58454_40850# VSS sg13_lv_nmos ad=0.102p pd=1.28u as=65.99999f ps=0.74u w=0.3u l=0.13u
X80 a_58453_40283# a_53022_43738# VDD VDD sg13_lv_pmos ad=59f pd=0.74u as=0.104p ps=1.34u w=0.2u l=0.13u
X81 a_53899_22244# a_53774_21934# a_53065_21935# VDD sg13_lv_pmos ad=0.19p pd=1.38u as=0.17695p ps=1.56u w=1u l=0.13u
X82 VDD X0 a_52924_24641# VDD sg13_lv_pmos ad=0.2128p pd=1.5u as=0.2128p ps=1.5u w=1.12u l=0.13u
X83 VDD a_64384_21091# 3bit_freq_divider_1.dff_nclk_0.nCLK VDD sg13_lv_pmos ad=0.3822p pd=1.84u as=0.3808p ps=2.92u w=1.12u l=0.13u
X84 3bit_freq_divider_1.freq_div_cell_0.dff_nclk_0.D 3bit_freq_divider_1.freq_div_cell_0.dff_nclk_0.Q a_61972_23244# VSS sg13_lv_nmos ad=0.1628p pd=1.18u as=88.8f ps=0.98u w=0.74u l=0.13u
X85 VDD 3bit_freq_divider_1.sg13g2_tiehi_1.L_HI a_61878_24642# VDD sg13_lv_pmos ad=0.2128p pd=1.5u as=0.3808p ps=2.92u w=1.12u l=0.13u
X86 3bit_freq_divider_1.sg13g2_or3_1_0.B a_63255_23244# a_63426_22886# VDD sg13_lv_pmos ad=0.3808p pd=2.92u as=0.2128p ps=1.5u w=1.12u l=0.13u
X87 VSS vco_wob_0.vctl a_53022_43738# VSS sg13_lv_nmos ad=0.102p pd=1.28u as=65.99999f ps=0.74u w=0.3u l=0.13u
X88 a_51729_23026# a_51631_22774# a_51693_23426# VDD sg13_lv_pmos ad=51.45f pd=0.665u as=79.8f ps=0.8u w=0.42u l=0.13u
X89 a_53147_40413# VSS cap_cmim l=6.99u w=6.99u
X90 a_57084_43159# a_53022_43738# VDD VDD sg13_lv_pmos ad=59.75f pd=0.745u as=0.104p ps=1.34u w=0.2u l=0.13u
X91 a_61887_20534# a_61691_20534# VSS VSS sg13_lv_nmos ad=0.2516p pd=2.16u as=0.1544p ps=1.235u w=0.74u l=0.13u
X92 a_54400_43159# a_53152_43159# a_54494_43159# VDD sg13_lv_pmos ad=0.17p pd=1.68u as=0.11p ps=0.94u w=0.5u l=0.13u
X93 a_62119_22361# a_61691_22290# a_61394_21976# VSS sg13_lv_nmos ad=79.8f pd=0.8u as=0.1428p ps=1.52u w=0.42u l=0.13u
X94 a_52950_23913# a_53065_23691# VDD VDD sg13_lv_pmos ad=0.2856p pd=2.36u as=0.2016p ps=1.5u w=0.84u l=0.13u
X95 a_54504_20259# a_53738_20514# a_53968_20434# VDD sg13_lv_pmos ad=0.1428p pd=1.52u as=79.8f ps=0.8u w=0.42u l=0.13u
X96 a_62119_24117# 3bit_freq_divider_1.dff_nclk_0.nCLK VDD VDD sg13_lv_pmos ad=0.1533p pd=1.57u as=0.11785p ps=1.025u w=0.42u l=0.13u
X97 PFD_0.VCO_CLK PFD_0.VCO_CLK a_46817_27899# VDD sg13_lv_pmos ad=60.8f pd=0.7u as=0.1088p ps=1.32u w=0.32u l=0.15u
X98 VDD 3bit_freq_divider_0.CLK_IN 3bit_freq_divider_1.sg13g2_nand2_1_0.Y VDD sg13_lv_pmos ad=0.3808p pd=2.92u as=0.2128p ps=1.5u w=1.12u l=0.13u
X99 VDD a_62900_21935# a_62879_22369# VDD sg13_lv_pmos ad=79.8f pd=0.8u as=43.05f ps=0.625u w=0.42u l=0.13u
X100 3bit_freq_divider_1.freq_div_cell_0.dff_nclk_0.sg13g2_dfrbp_1_0.CLK 3bit_freq_divider_1.sg13g2_nand2_1_0.Y VDD VDD sg13_lv_pmos ad=0.392p pd=2.94u as=0.392p ps=2.94u w=1.12u l=0.13u
X101 a_53350_21129# X2 a_52886_21392# VDD sg13_lv_pmos ad=0.1225p pd=1.245u as=0.34p ps=2.68u w=1u l=0.13u
X102 a_58454_40850# a_58515_40413# a_57173_40413# VSS sg13_lv_nmos ad=0.17p pd=1.68u as=0.11p ps=0.94u w=0.5u l=0.13u
X103 VSS 3bit_freq_divider_0.EN a_56055_21027# VSS sg13_lv_nmos ad=0.2516p pd=2.16u as=66.6f ps=0.92u w=0.74u l=0.13u
X104 VDD a_62654_23727# a_63463_23728# VDD sg13_lv_pmos ad=0.2016p pd=1.5u as=0.2856p ps=2.36u w=0.84u l=0.13u
X105 VSS charge_pump_0.vout VSS VSS sg13_lv_nmos ad=0.285p pd=1.88u as=0 ps=0 w=1.5u l=0.65u
X106 a_55742_43159# a_54494_43159# a_55836_43159# VDD sg13_lv_pmos ad=0.17p pd=1.68u as=0.11p ps=0.94u w=0.5u l=0.13u
X107 a_62654_21971# a_61887_22290# a_62270_22299# VSS sg13_lv_nmos ad=0.2017p pd=1.48u as=0.19397p ps=1.29u w=0.64u l=0.13u
X108 VSS a_62900_20179# a_62848_20215# VSS sg13_lv_nmos ad=90.3f pd=0.85u as=54.6f ps=0.68u w=0.42u l=0.13u
X109 VSS 3bit_freq_divider_0.sg13g2_nand2_1_0.Y 3bit_freq_divider_0.freq_div_cell_0.dff_nclk_0.sg13g2_dfrbp_1_0.CLK VSS sg13_lv_nmos ad=0.259p pd=2.18u as=0.259p ps=2.18u w=0.74u l=0.13u
X110 a_61394_23732# 3bit_freq_divider_1.freq_div_cell_2.dff_nclk_0.D VDD VDD sg13_lv_pmos ad=79.8f pd=0.8u as=0.1428p ps=1.52u w=0.42u l=0.13u
X111 a_62848_20215# a_61691_20534# a_62654_20215# VSS sg13_lv_nmos ad=54.6f pd=0.68u as=0.2017p ps=1.48u w=0.42u l=0.13u
X112 a_53774_21934# 3bit_freq_divider_0.freq_div_cell_0.dff_nclk_0.sg13g2_dfrbp_1_0.CLK VSS VSS sg13_lv_nmos ad=0.2516p pd=2.16u as=0.1544p ps=1.235u w=0.74u l=0.13u
X113 a_53054_23243# X1 3bit_freq_divider_0.sg13g2_or3_1_0.B VSS sg13_lv_nmos ad=88.8f pd=0.98u as=0.1628p ps=1.18u w=0.74u l=0.13u
X114 a_53350_24641# X0 a_52886_24904# VDD sg13_lv_pmos ad=0.1225p pd=1.245u as=0.34p ps=2.68u w=1u l=0.13u
X115 VDD a_53022_43738# a_58426_43159# VDD sg13_lv_pmos ad=0.104p pd=1.34u as=59f ps=0.74u w=0.2u l=0.13u
X116 a_56038_24617# a_55941_24882# 3bit_freq_divider_0.sg13g2_tiehi_1.L_HI VDD sg13_lv_pmos ad=0.4657p pd=2.54u as=0.3927p ps=2.99u w=1.155u l=0.13u
X117 VDD 3bit_freq_divider_0.dff_nclk_0.nCLK a_53445_20214# VDD sg13_lv_pmos ad=79.8f pd=0.8u as=79.8f ps=0.8u w=0.42u l=0.13u
X118 VSS charge_pump_0.vout VSS VSS sg13_lv_nmos ad=0.285p pd=1.88u as=0 ps=0 w=1.5u l=0.65u
X119 a_57112_40850# vco_wob_0.vctl VSS VSS sg13_lv_nmos ad=65.99999f pd=0.74u as=0.102p ps=1.28u w=0.3u l=0.13u
X120 a_60584_24580# a_60385_24717# a_60479_25023# VSS sg13_lv_nmos ad=0.27427p pd=2.28u as=0.2307p ps=1.615u w=0.795u l=0.13u
X121 VSS a_61707_21488# 3bit_freq_divider_1.freq_div_cell_1.dff_nclk_0.D VSS sg13_lv_nmos ad=0.3108p pd=2.32u as=0.1628p ps=1.18u w=0.74u l=0.13u
X122 a_63255_25000# Y0 a_63223_24642# VDD sg13_lv_pmos ad=0.34p pd=2.68u as=0.1225p ps=1.245u w=1u l=0.13u
X123 VDD a_51648_24041# a_51685_23725# VDD sg13_lv_pmos ad=0.2163p pd=1.55u as=79.8f ps=0.8u w=0.42u l=0.13u
X124 3bit_freq_divider_1.freq_div_cell_1.dff_nclk_0.Q a_63463_20216# VDD VDD sg13_lv_pmos ad=0.3808p pd=2.92u as=0.2016p ps=1.5u w=1.12u l=0.13u
X125 3bit_freq_divider_0.freq_div_cell_1.dff_nclk_0.D a_54434_21392# VSS VSS sg13_lv_nmos ad=0.1628p pd=1.18u as=0.3108p ps=2.32u w=0.74u l=0.13u
X126 VSS Y0 a_63255_25000# VSS sg13_lv_nmos ad=0.15245p pd=1.17u as=0.17462p ps=1.185u w=0.55u l=0.13u
X127 VSS a_56887_49467# VSS VSS sg13_lv_nmos ad=95f pd=0.88u as=0 ps=0 w=0.5u l=0.65u
X128 a_48909_28913# PFD_0.VCO_CLK a_47954_28913# VSS sg13_lv_nmos ad=68.39999f pd=0.74u as=0.1224p ps=1.4u w=0.36u l=0.15u
X129 VDD a_62270_20543# a_62221_20605# VDD sg13_lv_pmos ad=0.11785p pd=1.025u as=51.45f ps=0.665u w=0.42u l=0.13u
X130 a_62246_22016# a_61887_22290# a_62119_22361# VSS sg13_lv_nmos ad=54.6f pd=0.68u as=79.8f ps=0.8u w=0.42u l=0.13u
X131 VDD 3bit_freq_divider_1.freq_div_cell_1.dff_nclk_0.Q a_63426_21130# VDD sg13_lv_pmos ad=0.2128p pd=1.5u as=0.3808p ps=2.92u w=1.12u l=0.13u
X132 VDD 3bit_freq_divider_0.freq_div_cell_0.Cout a_54898_21129# VDD sg13_lv_pmos ad=0.36p pd=2.72u as=0.1225p ps=1.245u w=1u l=0.13u
X133 VSS charge_pump_0.vout VSS VSS sg13_lv_nmos ad=0.285p pd=1.88u as=0 ps=0 w=1.5u l=0.65u
X134 a_64362_24865# a_64459_24995# a_64731_24890# VDD sg13_lv_pmos ad=0.2442p pd=2.06u as=0.4657p ps=2.54u w=0.66u l=0.13u
X135 a_55831_40413# a_57173_40413# a_57112_40850# VSS sg13_lv_nmos ad=0.11p pd=0.94u as=0.17p ps=1.68u w=0.5u l=0.13u
X136 VSS a_56887_49467# VSS VSS sg13_lv_nmos ad=95f pd=0.88u as=0 ps=0 w=0.5u l=0.65u
X137 a_47777_29803# a_46749_30782# VSS VSS sg13_lv_nmos ad=0.1224p pd=1.4u as=0.1224p ps=1.4u w=0.36u l=0.15u
X138 a_55086_21975# 3bit_freq_divider_0.dff_nclk_0.nCLK VSS VSS sg13_lv_nmos ad=50.4f pd=0.66u as=0.1428p ps=1.52u w=0.42u l=0.13u
X139 VDD 3bit_freq_divider_0.sg13g2_tiehi_1.L_HI a_54898_24641# VDD sg13_lv_pmos ad=0.36p pd=2.72u as=0.1225p ps=1.245u w=1u l=0.13u
X140 a_53445_21970# a_53065_21935# VDD VDD sg13_lv_pmos ad=79.8f pd=0.8u as=0.2163p ps=1.55u w=0.42u l=0.13u
X141 VSS 3bit_freq_divider_0.freq_div_cell_0.dff_nclk_0.Q a_52886_23148# VSS sg13_lv_nmos ad=0.374p pd=2.46u as=0.17462p ps=1.185u w=0.55u l=0.13u
X142 a_64384_21091# 3bit_freq_divider_1.sg13g2_or3_1_0.A VSS VSS sg13_lv_nmos ad=0.198p pd=1.27u as=0.13395p ps=1.12u w=0.55u l=0.13u
X143 a_63255_23244# 3bit_freq_divider_1.freq_div_cell_0.dff_nclk_0.Q VSS VSS sg13_lv_nmos ad=0.17462p pd=1.185u as=0.374p ps=2.46u w=0.55u l=0.13u
X144 a_54494_43159# a_53152_43159# a_54400_43159# VDD sg13_lv_pmos ad=0.1106p pd=0.945u as=0.17p ps=1.68u w=0.5u l=0.13u
X145 a_63426_24642# Y0 VDD VDD sg13_lv_pmos ad=0.2128p pd=1.5u as=0.2128p ps=1.5u w=1.12u l=0.13u
X146 a_62270_20543# a_62119_20605# VSS VSS sg13_lv_nmos ad=0.19397p pd=1.29u as=0.1825p ps=1.325u w=0.64u l=0.13u
X147 VSS a_56887_49467# VSS VSS sg13_lv_nmos ad=95f pd=0.88u as=0 ps=0 w=0.5u l=0.65u
X148 VSS vco_wob_0.vctl a_58653_42591# VSS sg13_lv_nmos ad=0.102p pd=1.28u as=65.99999f ps=0.74u w=0.3u l=0.13u
X149 3bit_freq_divider_1.freq_div_cell_0.dff_nclk_0.nQ a_62654_21971# VSS VSS sg13_lv_nmos ad=0.2775p pd=2.23u as=0.2516p ps=2.16u w=0.74u l=0.13u
X150 a_58653_42591# a_57178_43159# 3bit_freq_divider_0.CLK_IN VSS sg13_lv_nmos ad=0.17p pd=1.68u as=0.11p ps=0.94u w=0.5u l=0.13u
X151 VDD a_64383_23889# a_64384_24445# VDD sg13_lv_pmos ad=0.2016p pd=1.5u as=0.2856p ps=2.36u w=0.84u l=0.13u
X152 a_51708_21299# 3bit_freq_divider_0.sg13g2_or3_1_0.A VDD VDD sg13_lv_pmos ad=0.22p pd=1.44u as=0.3822p ps=1.84u w=1u l=0.13u
X153 VSS 3bit_freq_divider_0.dff_nclk_0.nRST a_52074_23129# VSS sg13_lv_nmos ad=0.1825p pd=1.325u as=48.3f ps=0.65u w=0.42u l=0.13u
X154 a_53147_40413# a_54489_40413# a_54427_40283# VDD sg13_lv_pmos ad=0.11p pd=0.94u as=0.17p ps=1.68u w=0.5u l=0.13u
X155 VDD 3bit_freq_divider_0.sg13g2_nand2_1_0.Y 3bit_freq_divider_0.freq_div_cell_1.dff_nclk_0.sg13g2_dfrbp_1_0.CLK VDD sg13_lv_pmos ad=0.392p pd=2.94u as=0.392p ps=2.94u w=1.12u l=0.13u
X156 a_57178_43159# VSS cap_cmim l=6.99u w=6.99u
X157 VSS charge_pump_0.vout VSS VSS sg13_lv_nmos ad=0.51p pd=3.68u as=0 ps=0 w=1.5u l=0.65u
X158 VSS charge_pump_0.vout VSS VSS sg13_lv_nmos ad=0.285p pd=1.88u as=0 ps=0 w=1.5u l=0.65u
X159 VSS a_56887_49467# VSS VSS sg13_lv_nmos ad=95f pd=0.88u as=0 ps=0 w=0.5u l=0.65u
X160 a_62879_20613# a_61887_20534# a_62654_20215# VDD sg13_lv_pmos ad=43.05f pd=0.625u as=0.17695p ps=1.56u w=0.42u l=0.13u
X161 a_61887_22290# a_61691_22290# VSS VSS sg13_lv_nmos ad=0.2516p pd=2.16u as=0.1544p ps=1.235u w=0.74u l=0.13u
X162 VSS a_52950_22157# 3bit_freq_divider_0.freq_div_cell_0.dff_nclk_0.Q VSS sg13_lv_nmos ad=0.14505p pd=1.15u as=0.2516p ps=2.16u w=0.74u l=0.13u
X163 VSS a_56887_49467# VSS VSS sg13_lv_nmos ad=95f pd=0.88u as=0 ps=0 w=0.5u l=0.65u
X164 a_63520_25000# 3bit_freq_divider_1.freq_div_cell_2.dff_nclk_0.Q VSS VSS sg13_lv_nmos ad=88.8f pd=0.98u as=0.15245p ps=1.17u w=0.74u l=0.13u
X165 a_53702_24124# a_53445_23726# VDD VDD sg13_lv_pmos ad=43.05f pd=0.625u as=79.8f ps=0.8u w=0.42u l=0.13u
X166 a_61707_25000# 3bit_freq_divider_1.sg13g2_tiehi_1.L_HI VSS VSS sg13_lv_nmos ad=0.17462p pd=1.185u as=0.374p ps=2.46u w=0.55u l=0.13u
X167 VDD 3bit_freq_divider_1.freq_div_cell_0.dff_nclk_0.sg13g2_dfrbp_1_0.CLK a_61691_22290# VDD sg13_lv_pmos ad=0.19p pd=1.38u as=0.34p ps=2.68u w=1u l=0.13u
X168 VDD 3bit_freq_divider_0.freq_div_cell_1.dff_nclk_0.Q a_54472_21129# VDD sg13_lv_pmos ad=0.2128p pd=1.5u as=0.2128p ps=1.5u w=1.12u l=0.13u
X169 VSS 3bit_freq_divider_0.freq_div_cell_0.Cin a_54602_23243# VSS sg13_lv_nmos ad=0.15245p pd=1.17u as=88.8f ps=0.98u w=0.74u l=0.13u
X170 VSS a_51648_24041# a_51648_24438# VSS sg13_lv_nmos ad=0.14505p pd=1.15u as=0.187p ps=1.78u w=0.55u l=0.13u
X171 VSS charge_pump_0.vout VSS VSS sg13_lv_nmos ad=0.285p pd=1.88u as=0 ps=0 w=1.5u l=0.65u
X172 a_53147_40413# a_54489_40413# a_54427_40283# VDD sg13_lv_pmos ad=0.1106p pd=0.945u as=0.11p ps=0.94u w=0.5u l=0.13u
X173 a_62270_20543# a_62119_20605# VDD VDD sg13_lv_pmos ad=0.19p pd=1.38u as=0.34p ps=2.68u w=1u l=0.13u
X174 a_51648_21103# 3bit_freq_divider_0.sg13g2_or3_1_0.C a_51708_21413# VDD sg13_lv_pmos ad=0.34p pd=2.68u as=0.1275p ps=1.255u w=1u l=0.13u
X175 VDD 3bit_freq_divider_0.dff_nclk_0.sg13g2_dfrbp_1_0.CLK a_51631_22774# VDD sg13_lv_pmos ad=0.19p pd=1.38u as=0.34p ps=2.68u w=1u l=0.13u
X176 VSS vco_wob_0.vctl a_53086_40850# VSS sg13_lv_nmos ad=0.102p pd=1.28u as=65.99999f ps=0.74u w=0.3u l=0.13u
X177 a_59800_40852# vco_wob_0.vctl VSS VSS sg13_lv_nmos ad=65.99999f pd=0.74u as=0.102p ps=1.28u w=0.3u l=0.13u
X178 VSS a_56887_49467# VSS VSS sg13_lv_nmos ad=95f pd=0.88u as=0 ps=0 w=0.5u l=0.65u
X179 a_53085_40283# a_53022_43738# VDD VDD sg13_lv_pmos ad=59f pd=0.74u as=0.104p ps=1.34u w=0.2u l=0.13u
X180 a_62654_23727# a_61887_24046# a_62270_24055# VSS sg13_lv_nmos ad=0.2017p pd=1.48u as=0.19397p ps=1.29u w=0.64u l=0.13u
X181 3bit_freq_divider_0.EN nEN VDD VDD sg13_lv_pmos ad=0.392p pd=2.94u as=0.392p ps=2.94u w=1.12u l=0.13u
X182 VDD a_58734_56203# a_58734_56203# VDD sg13_lv_pmos ad=0.17p pd=1.68u as=0.17p ps=1.68u w=0.5u l=0.15u
X183 VDD a_64383_23706# a_64817_23685# VDD sg13_lv_pmos ad=79.8f pd=0.8u as=43.05f ps=0.625u w=0.42u l=0.13u
X184 VDD 3bit_freq_divider_0.freq_div_cell_2.dff_nclk_0.Q a_54472_24641# VDD sg13_lv_pmos ad=0.2128p pd=1.5u as=0.2128p ps=1.5u w=1.12u l=0.13u
X185 VSS 3bit_freq_divider_0.sg13g2_nand2_1_0.Y 3bit_freq_divider_0.freq_div_cell_2.dff_nclk_0.sg13g2_dfrbp_1_0.CLK VSS sg13_lv_nmos ad=0.259p pd=2.18u as=0.259p ps=2.18u w=0.74u l=0.13u
X186 a_55862_56737# VDD rhigh l=12u w=1u
X187 VDD a_46817_27899# a_45658_27900# VDD sg13_lv_pmos ad=0.1224p pd=1.4u as=68.39999f ps=0.74u w=0.36u l=0.15u
X188 3bit_freq_divider_1.sg13g2_or3_1_0.B Y1 a_63520_23244# VSS sg13_lv_nmos ad=0.1628p pd=1.18u as=88.8f ps=0.98u w=0.74u l=0.13u
X189 VSS charge_pump_0.vout VSS VSS sg13_lv_nmos ad=0.285p pd=1.88u as=0 ps=0 w=1.5u l=0.65u
X190 a_54489_40413# a_55831_40413# a_55769_40283# VDD sg13_lv_pmos ad=0.1106p pd=0.945u as=0.11p ps=0.94u w=0.5u l=0.13u
X191 a_57084_43159# a_55836_43159# a_57178_43159# VDD sg13_lv_pmos ad=0.17p pd=1.68u as=0.11p ps=0.94u w=0.5u l=0.13u
X192 a_63223_24642# 3bit_freq_divider_1.freq_div_cell_2.dff_nclk_0.Q VDD VDD sg13_lv_pmos ad=0.1225p pd=1.245u as=0.36p ps=2.72u w=1u l=0.13u
X193 3bit_freq_divider_0.CLK_IN a_57178_43159# a_58426_43159# VDD sg13_lv_pmos ad=0.11p pd=0.94u as=0.11p ps=0.94u w=0.5u l=0.13u
X194 a_58515_40413# 3bit_freq_divider_0.CLK_IN a_59800_40852# VSS sg13_lv_nmos ad=0.11p pd=0.94u as=0.17p ps=1.68u w=0.5u l=0.13u
X195 VDD a_62654_20215# a_62900_20179# VDD sg13_lv_pmos ad=0.2163p pd=1.55u as=79.8f ps=0.8u w=0.42u l=0.13u
X196 a_53086_40850# a_53147_40413# a_52944_43077# VSS sg13_lv_nmos ad=0.17p pd=1.68u as=0.11p ps=0.94u w=0.5u l=0.13u
X197 a_64424_22294# 3bit_freq_divider_1.dff_nclk_0.D a_64424_22200# VSS sg13_lv_nmos ad=50.4f pd=0.66u as=0.1428p ps=1.52u w=0.42u l=0.13u
X198 a_61488_23732# 3bit_freq_divider_1.freq_div_cell_2.dff_nclk_0.D a_61394_23732# VSS sg13_lv_nmos ad=50.4f pd=0.66u as=0.1428p ps=1.52u w=0.42u l=0.13u
X199 3bit_freq_divider_1.freq_div_cell_1.dff_nclk_0.sg13g2_dfrbp_1_0.CLK 3bit_freq_divider_1.sg13g2_nand2_1_0.Y VSS VSS sg13_lv_nmos ad=0.259p pd=2.18u as=0.259p ps=2.18u w=0.74u l=0.13u
X200 a_61061_21478# 3bit_freq_divider_1.freq_div_cell_0.Cout a_60967_21478# VSS sg13_lv_nmos ad=0.1216p pd=1.02u as=0.2176p ps=1.96u w=0.64u l=0.13u
X201 VSS 3bit_freq_divider_0.dff_nclk_0.sg13g2_dfrbp_1_0.CLK a_51631_22774# VSS sg13_lv_nmos ad=0.1544p pd=1.235u as=0.2516p ps=2.16u w=0.74u l=0.13u
X202 a_62221_20605# a_61691_20534# a_62119_20605# VDD sg13_lv_pmos ad=51.45f pd=0.665u as=79.8f ps=0.8u w=0.42u l=0.13u
X203 VDD a_53022_43738# a_54427_40283# VDD sg13_lv_pmos ad=0.104p pd=1.34u as=59.75f ps=0.745u w=0.2u l=0.13u
X204 VSS a_53968_22190# a_53899_22244# VSS sg13_lv_nmos ad=0.1825p pd=1.325u as=0.19397p ps=1.29u w=0.64u l=0.13u
X205 VSS charge_pump_0.vout VSS VSS sg13_lv_nmos ad=0.285p pd=1.88u as=0 ps=0 w=1.5u l=0.65u
X206 3bit_freq_divider_1.sg13g2_nand2_1_0.Y 3bit_freq_divider_0.CLK_IN a_60531_21028# VSS sg13_lv_nmos ad=0.2516p pd=2.16u as=66.6f ps=0.92u w=0.74u l=0.13u
X207 VSS a_55345_21385# 3bit_freq_divider_0.freq_div_cell_1.Cout VSS sg13_lv_nmos ad=0.1331p pd=1.12u as=0.2516p ps=2.16u w=0.74u l=0.13u
X208 a_59097_54704# 3bit_freq_divider_0.EN VSS VSS sg13_lv_nmos ad=0.17p pd=1.68u as=0.17p ps=1.68u w=0.5u l=0.15u
X209 a_52114_22293# 3bit_freq_divider_0.dff_nclk_0.D a_51684_22284# VSS sg13_lv_nmos ad=50.4f pd=0.66u as=0.1428p ps=1.52u w=0.42u l=0.13u
X210 a_51693_23075# a_51693_23426# VDD VDD sg13_lv_pmos ad=0.19p pd=1.38u as=0.34p ps=2.68u w=1u l=0.13u
X211 VDD a_64383_23889# a_64383_23706# VDD sg13_lv_pmos ad=0.2163p pd=1.55u as=79.8f ps=0.8u w=0.42u l=0.13u
X212 a_61061_24990# 3bit_freq_divider_1.sg13g2_tiehi_1.L_HI a_60967_24990# VSS sg13_lv_nmos ad=0.1216p pd=1.02u as=0.2176p ps=1.96u w=0.64u l=0.13u
X213 a_58515_40413# VSS cap_cmim l=6.99u w=6.99u
X214 a_54472_21129# 3bit_freq_divider_0.freq_div_cell_0.Cout VDD VDD sg13_lv_pmos ad=0.3808p pd=2.92u as=0.2128p ps=1.5u w=1.12u l=0.13u
X215 a_61887_22290# a_61691_22290# VDD VDD sg13_lv_pmos ad=0.34p pd=2.68u as=0.19p ps=1.38u w=1u l=0.13u
X216 VDD a_53022_43738# a_53058_43159# VDD sg13_lv_pmos ad=0.104p pd=1.34u as=59f ps=0.74u w=0.2u l=0.13u
X217 a_61878_24642# 3bit_freq_divider_1.freq_div_cell_2.dff_nclk_0.Q VDD VDD sg13_lv_pmos ad=0.2128p pd=1.5u as=0.2128p ps=1.5u w=1.12u l=0.13u
X218 VSS 3bit_freq_divider_1.dff_nclk_0.nCLK a_61488_21976# VSS sg13_lv_nmos ad=0.1428p pd=1.52u as=50.4f ps=0.66u w=0.42u l=0.13u
X219 a_54400_43159# a_53022_43738# VDD VDD sg13_lv_pmos ad=59f pd=0.74u as=59f ps=0.74u w=0.2u l=0.13u
X220 3bit_freq_divider_1.freq_div_cell_1.dff_nclk_0.Q a_63463_20216# VSS VSS sg13_lv_nmos ad=0.2516p pd=2.16u as=0.14505p ps=1.15u w=0.74u l=0.13u
X221 a_54434_23148# 3bit_freq_divider_0.freq_div_cell_0.dff_nclk_0.Q VSS VSS sg13_lv_nmos ad=0.17462p pd=1.185u as=0.15245p ps=1.17u w=0.55u l=0.13u
X222 VDD a_53022_43738# a_55769_40283# VDD sg13_lv_pmos ad=0.104p pd=1.34u as=59.75f ps=0.745u w=0.2u l=0.13u
X223 3bit_freq_divider_0.dff_nclk_0.D a_51648_24041# VDD VDD sg13_lv_pmos ad=0.7616p pd=3.6u as=0.2163p ps=1.55u w=1.12u l=0.13u
X224 3bit_freq_divider_1.freq_div_cell_0.Cout a_60967_23234# VSS VSS sg13_lv_nmos ad=0.2516p pd=2.16u as=0.1331p ps=1.12u w=0.74u l=0.13u
X225 VSS a_56887_49467# VSS VSS sg13_lv_nmos ad=95f pd=0.88u as=0 ps=0 w=0.5u l=0.65u
X226 a_54472_24641# 3bit_freq_divider_0.sg13g2_tiehi_1.L_HI VDD VDD sg13_lv_pmos ad=0.3808p pd=2.92u as=0.2128p ps=1.5u w=1.12u l=0.13u
X227 a_55485_24989# 3bit_freq_divider_0.freq_div_cell_2.dff_nclk_0.Q VSS VSS sg13_lv_nmos ad=0.1216p pd=1.02u as=0.1331p ps=1.12u w=0.64u l=0.13u
X228 PFD_0.VCO_CLK a_51648_24438# VSS VSS sg13_lv_nmos ad=0.2516p pd=2.16u as=0.14505p ps=1.15u w=0.74u l=0.13u
X229 a_62900_21935# 3bit_freq_divider_1.dff_nclk_0.nCLK VDD VDD sg13_lv_pmos ad=79.8f pd=0.8u as=79.8f ps=0.8u w=0.42u l=0.13u
X230 a_53774_21934# 3bit_freq_divider_0.freq_div_cell_0.dff_nclk_0.sg13g2_dfrbp_1_0.CLK VDD VDD sg13_lv_pmos ad=0.34p pd=2.68u as=0.19p ps=1.38u w=1u l=0.13u
X231 a_55742_43159# a_53022_43738# VDD VDD sg13_lv_pmos ad=59f pd=0.74u as=59f ps=0.74u w=0.2u l=0.13u
X232 a_53899_22244# a_53738_22270# a_53065_21935# VSS sg13_lv_nmos ad=0.19397p pd=1.29u as=0.2017p ps=1.48u w=0.64u l=0.13u
X233 a_64383_23889# a_64383_23628# a_64419_23326# VDD sg13_lv_pmos ad=0.17695p pd=1.56u as=0.19p ps=1.38u w=1u l=0.13u
X234 3bit_freq_divider_1.freq_div_cell_2.dff_nclk_0.nQ a_62654_23727# VSS VSS sg13_lv_nmos ad=0.2775p pd=2.23u as=0.2516p ps=2.16u w=0.74u l=0.13u
X235 3bit_freq_divider_0.dff_nclk_0.sg13g2_dfrbp_1_0.CLK 3bit_freq_divider_0.dff_nclk_0.nCLK VDD VDD sg13_lv_pmos ad=0.392p pd=2.94u as=0.392p ps=2.94u w=1.12u l=0.13u
X236 a_58426_43159# a_53022_43738# VDD VDD sg13_lv_pmos ad=59.75f pd=0.745u as=0.104p ps=1.34u w=0.2u l=0.13u
X237 VSS 3bit_freq_divider_0.freq_div_cell_0.dff_nclk_0.Q a_53054_23243# VSS sg13_lv_nmos ad=0.15245p pd=1.17u as=88.8f ps=0.98u w=0.74u l=0.13u
X238 VSS Y2 a_63255_21488# VSS sg13_lv_nmos ad=0.15245p pd=1.17u as=0.17462p ps=1.185u w=0.55u l=0.13u
X239 VSS a_56887_49467# VSS VSS sg13_lv_nmos ad=95f pd=0.88u as=0 ps=0 w=0.5u l=0.65u
X240 a_52950_20401# a_53065_20179# VDD VDD sg13_lv_pmos ad=0.2856p pd=2.36u as=0.2016p ps=1.5u w=0.84u l=0.13u
X241 a_62119_20605# 3bit_freq_divider_1.dff_nclk_0.nCLK VDD VDD sg13_lv_pmos ad=0.1533p pd=1.57u as=0.11785p ps=1.025u w=0.42u l=0.13u